Circuit: * C:\Users\DG Maintenance\Documents\optirev2\LTSpice\Draft1.asc

Direct Newton iteration failed to find .op point.  (Use ".option noopiter" to skip.)
Starting Gmin stepping
Gmin = 10
Gmin = 1.07374
Gmin = 0.115292
Gmin = 0.0123794
Gmin = 0.00132923
Gmin = 0.000142725
Gmin = 1.5325e-005
Gmin = 1.6455e-006
Gmin = 1.76685e-007
Gmin = 1.89714e-008
Gmin = 2.03704e-009
Gmin = 2.18725e-010
Gmin = 2.34854e-011
Gmin = 2.52173e-012
Gmin = 2.70769e-013
Gmin = 0
Gmin stepping succeeded in finding the operating point.

.step r=1
Heightened Def Con from 0.00049488 to 0.000494881
Heightened Def Con from 0.000998402 to 0.000998403
Heightened Def Con from 0.00102194 to 0.00102194
Heightened Def Con from 0.00251293 to 0.00251293
Heightened Def Con from 0.00301132 to 0.00301132
Heightened Def Con from 0.00351362 to 0.00351362
Heightened Def Con from 0.00401368 to 0.00401368
Heightened Def Con from 0.00451313 to 0.00451313
Heightened Def Con from 0.00651307 to 0.00651307
Heightened Def Con from 0.00851226 to 0.00851226
Heightened Def Con from 0.00901077 to 0.00901077
Heightened Def Con from 0.0100092 to 0.0100092
Heightened Def Con from 0.0110133 to 0.0110133
Heightened Def Con from 0.0150132 to 0.0150132
Heightened Def Con from 0.015027 to 0.015027
Heightened Def Con from 0.0165126 to 0.0165126
Heightened Def Con from 0.0175107 to 0.0175107
Heightened Def Con from 0.0185135 to 0.0185135
Heightened Def Con from 0.0190132 to 0.0190132
Heightened Def Con from 0.0225128 to 0.0225128
Heightened Def Con from 0.0235112 to 0.0235112
Heightened Def Con from 0.0245286 to 0.0245286
Heightened Def Con from 0.0250121 to 0.0250121
Heightened Def Con from 0.025528 to 0.025528
Heightened Def Con from 0.0260095 to 0.0260095
Heightened Def Con from 0.0270121 to 0.0270121
.step r=1001
.step r=2001
.step r=3001
.step r=4001
.step r=5001
.step r=6001
.step r=7001
.step r=8001
.step r=9001
.step r=10000

Date: Mon Jan 16 15:01:58 2023
Total elapsed time: 5.937 seconds.

tnom = 27
temp = 27
method = modified trap
totiter = 81901
traniter = 81551
tranpoints = 37689
accept = 25117
rejected = 12589
matrix size = 25
fillins = 18
solver = Normal
Matrix Compiler1: 2.19 KB object code size  0.4/0.2/[0.1]
Matrix Compiler2: 2.85 KB object code size  0.2/0.3/[0.2]

